test/data/pwf/500bus.pwf
(ARQUIVO GRAVADO A PARTIR DO PROGRAMA ORGANON)
TITU
0,    100.00, 33, 0, 0, 60.00       / March 15, 2017 14:58:                                                             
DOPC
(Op) E (Op) E (Op) E (Op) E (Op) E (Op) E (Op) E (Op) E (Op) E (Op) E
NEWT L STEP L CREM L CELO L 
RCVG L RMON L MOST L MOSG L MOSF L FILE L CONT L
QLIM L
CTAP D
TAPD D
CSCA D
CPHS D
99999
(Mn) ( Val) (Mn) ( Val) (Mn) ( Val) (Mn) ( Val) (Mn) ( Val) (Mn) ( Val)
DCTE
BASE 100.  
TEPA .1    
TEPR .1    
VFLD 80.   
ACIT     35
99999
DBAR
(Num)OETGb(   nome   )Gl( V)( A)( Pg)( Qg)( Qn)( Qm)(Bc  )( Pl)( Ql)( Sh)Are(Vf)M(1)(2)(3)(4)(5)(6)(7)(8)(9)(10
    1 L  AWINNSBORO 0  A1012-7.3                                           11000
    2 L  AWINNSBORO 1  A1012-7.4                          42.8 11.41       11000
    3 L  ACOLUMBIA 1~3 A1006-8.6                                           11000
    4 L  ACOLUMBIA 1~4 A1004-8.8                          132.735.38       11000
    5 L  ASMYRNA 0     A10152.14                                           11000
    6 L  ASMYRNA 1     A10152.14                          3.213.857        11000
    7 L   EASTOVER 2 0 A1034-3.5                                           11000
    8 L  AEASTOVER 2 1 A1027-5.2                                           11000
    9 L1  EASTOVER 2 2 A1040-.66771.8105.7-94.2359.7                       11000
   10 L  ACHAPPELLS ~6 A1017-10.                                           11000
   11 L  ACHAPPELLS ~7 A1017-10.                          2.472.659        11000
   12 L  APELZER 0     A 992-11.                                           11000
   13 L  APELZER 1     A 991-11.                          37.169.91        11000
   14 L   SENECA 3 0   A1030.069                                           11000
   15 L  ASENECA 3 1   A1021-2.6                                           11000
   16 L1  SENECA 3 2   A10402.91444.484.63-36.4163.6                       11000
   17 L2  SENECA 3 3   A10403.47888.3150. -72.9327.1                       11000
   18 L1  SENECA 3 4   A10404.37157.621.67-12.958.                         11000
   19 L  AMONETTA 0    A1018-11.                                           11000
   20 L  AMONETTA 1    A1018-11.                          4.5421.211       11000
   21 L  ALEXINGTON ~2 A1010-8.9                                           11000
   22 L  ALEXINGTON ~3 A1007-9.1                          148.739.65       11000
   23 L   WELLFORD 0   A1027-4.5                                           11000
   24 L  AWELLFORD 1   A1012-7.3                                           11000
   25 L  AWELLFORD 2   A1012-7.4                          2.283.609        11000
   26 L  AWELLFORD 3   A1012-7.4                          21.665.777       11000
   27 L  ALAURENS 0    A1013-13.                                           11000
   28 L  ALAURENS 1    A1012-13.                          62.9316.78       11000
   29 L  ACOLUMBIA 1~1 A1009-11.                                           11000
   30 L  ACOLUMBIA 1~2 A1008-11.                          99.9726.66       11000
   31 L  AWINDSOR 0    A1032-14.                                           11000
   32 L  AWINDSOR 1    A1032-14.                          9.7652.604       11000
   33 L  APROSPERITY 0 A1006-12.                                           11000
   34 L  APROSPERITY 1 A1006-12.                          25.  6.666       11000
   35 L  ANORTH AUGU~3 A1018-12.                                           11000
   36 L  ANORTH AUGU~4 A1017-12.                          43.3511.56       11000
   37 L  ALANDO 0      A10192.52                                           11000
   38 L  ALANDO 1      A10192.52                          .129 .034        11000
   39 L   GAFFNEY 3 0  A1030-4.3                                           11000
   40 L  AGAFFNEY 3 1  A1023-5.5                                           11000
   41 L  AGAFFNEY 3 2  A1022-5.7                          57.9915.46       11000
   42 L  ACLARKS HIL~4 A1024-10.                                           11000
   43 L  ACLARKS HIL~5 A1024-10.                          4.4611.19        11000
   44 L  AJENKINSVIL~1 A1018-6.3                                           11000
   45 L  AJENKINSVIL~2 A1018-6.3                          2.031.542        11000
   46 L  AWOODRUFF 0   A1004-9.7                                           11000
   47 L  AWOODRUFF 1   A1004-9.8                          43.4111.58       11000
   48 L  AIVA 0        A1001-14.                                           11000
   49 L1  IVA 1        A1003-14.1.3  .606 -.159.606                        11000
   50 L1  IVA 2        A1003-14.2.6  1.212-.3171.212                       11000
   51 L  AIVA 3        A1001-14.                          .354 .094        11000
   52 L  AIVA 4        A1001-14.                          23.396.237       11000
   53 L  ACAYCE 0      A1017-9.8                                           11000
   54 L  ACAYCE 1      A1016-9.8                          34.819.282       11000
   55 L  ATROY 0       A1019-9.7                                           11000
   56 L  ATROY 1       A1019-9.7                          2.253.601        11000
   57 L   SIMPSONVIL~3 A1010-6.2                                           11000
   58 L  ASIMPSONVIL~4 A1002-9.                                            11000
   59 L  ASIMPSONVIL~5 A1000-9.3                          140.937.58       11000
   60 L  AMAYO 0       A1020-6.1                                           11000
   61 L  AMAYO 1       A1020-6.1                          .204 .054        11000
   62 L  ABELTON 2 0   A1010-8.4                                           11000
   63 L1  BELTON 2 1   A1010-8.4          0.   0.                          11000
   64 L  ABELTON 2 2   A1009-8.5                          34.789.274       11000
   65 L   BRADLEY 0    A1025-7.2                                           11000
   66 L  ABRADLEY 1    A1021-8.9                                           11000
   67 L  ABRADLEY 2    A1021-8.9                          4.5691.218       11000
   68 L  AENOREE 0     A1010-10.                                           11000
   69 L  AENOREE 1     A1009-10.                          16.964.523       11000
   70 L  AHONEA PATH~2 A 995-11.                                           11000
   71 L1  HONEA PATH~3 A 996-11.4.   1.536-.1961.536                       11000
   72 L1  HONEA PATH~4 A 996-11.2.   .768 -.098.768                        11000
   73 L1  HONEA PATH~5 A 997-11.1.4  .538 -.069.538                        11000
   74 L  ASPRINGFIEL~1 A1025-13.                                           11000
   75 L  ASPRINGFIEL~2 A1025-13.                          5.3011.414       11000
   76 L  AEDGEMOOR 0   A10183.39                                           11000
   77 L  AEDGEMOOR 1   A10183.38                          6.9511.854       11000
   78 L  ANEWRY 0      A1013-5.                                            11000
   79 L  ANEWRY 1      A1013-5.                           .381 .102        11000
   80 L   CLARKS HIL~1 A1032-6.7                                           11000
   81 L  ACLARKS HIL~2 A1026-9.3                                           11000
   82 L1  CLARKS HIL~3 A1040-.67361.941.1 -17.7139.                        11000
   83 L  ANEWBERRY 0   A1004-12.                                           11000
   84 L  ANEWBERRY 1   A1003-12.                          61.4116.38       11000
   85 L  AAIKEN 3 0    A1026-12.                                           11000
   86 L  AAIKEN 3 1    A1026-12.                          17.594.691       11000
   87 L  AROCK HILL ~5 A10014.16                                           11000
   88 L  AROCK HILL ~6 A10014.15                          5.2531.401       11000
   89 L  ACAMERON 0    A1018-7.7                                           11000
   90 L  ACAMERON 1    A1018-7.7                          5.9011.574       11000
   91 L  ASENECA 2 0   A1012-4.1                                           11000
   92 L  ASENECA 2 1   A1011-4.2                          65.0317.34       11000
   93 L  ABLAIR 0      A1015-3.                                            11000
   94 L  ABLAIR 1      A1015-3.                           5.2141.39        11000
   95 L  AWALHALLA 0   A1012-4.1                                           11000
   96 L  AWALHALLA 1   A1012-4.1                          34.  9.066       11000
   97 L  AANDERSON 4 0 A1005-15.                                           11000
   98 L  AANDERSON 4 1 A1004-15.                          37.099.891       11000
   99 L  APACOLET 0    A1022-5.7                                           11000
  100 L  APACOLET 1    A1022-5.7                          13.523.606       11000
  101 L  APACOLET 2    A1022-5.7                          .891 .238        11000
  102 L  AABBEVILLE 0  A1003-13.                                           11000
  103 L  AABBEVILLE 1  A1002-13.                          38.8 10.35       11000
  104 L  AAIKEN 2 0    A1018-14.                                           11000
  105 L  AAIKEN 2 1    A1017-14.                          80.3321.42       11000
  106 L  AJOHNSTON 0   A1020-11.                                           11000
  107 L  AJOHNSTON 1   A1020-11.                          16.  4.268       11000
  108 L  ASPARTANBU~14 A1015-6.6                                           11000
  109 L  ASPARTANBU~15 A1014-6.7                          47.5812.69       11000
  110 L  AGAFFNEY 2 0  A1027-1.5                                           11000
  111 L  AGAFFNEY 2 1  A1026-1.6                          62.2916.61       11000
  112 L  ALEESVILLE 0  A1014-10.                                           11000
  113 L  ALEESVILLE 1  A1013-10.                          45.9912.26       11000
  114 L  ALANGLEY 0    A1019-13.                                           11000
  115 L  ALANGLEY 1    A1019-13.                          5.0611.35        11000
  116 L  ALANGLEY 2    A1019-13.                          3.099.826        11000
  117 L  ADONALDS 0    A1005-10.                                           11000
  118 L  ADONALDS 1    A1004-10.                          8.8322.355       11000
  119 L  AGREENVILL~17 A 987-12.                                           11000
  120 L  AGREENVILL~18 A 987-12.                          31.658.44        11000
  121 L  ACOLUMBIA 9 0 A1013-10.                                           11000
  122 L  ACOLUMBIA 9 1 A1012-11.                          53.3614.23       11000
  123 L   SALEM 3 0    A1030-.28                                           11000
  124 L  ASALEM 3 1    A1028-.98                                           11000
  125 L1  SALEM 3 2    A1030-.28          0.   0.                          11000
  126 L1  SALEM 3 3    A1030-.28          0.   0.                          11000
  127 L1  SALEM 3 4    A10403.87162. 26.08-7.9462.21                       11000
  128 L1  SALEM 3 5    A10401.09162. 62.21-7.9462.21                       11000
  129 L  AGREENVILL~15 A 984-12.                                           11000
  130 L  AGREENVILL~16 A 983-13.                          103.227.53       11000
  131 L  ACOWPENS 0    A1020-6.                                            11000
  132 L  ACOWPENS 1    A1020-6.                           25.2 6.721       11000
  133 L  AWESTMINSTE~3 A1013-4.                                            11000
  134 L  AWESTMINSTE~4 A1012-4.1                          42.6511.37       11000
  135 L  ASAINT MATT~1 A1015-7.9                                           11000
  136 L  ASAINT MATT~2 A1015-7.9                          26.767.135       11000
  137 L  AGREENWOOD ~3 A1007-11.                                           11000
  138 L  AGREENWOOD ~4 A1006-11.                          78.7 20.99       11000
  139 L  AFINGERVILL~1 A1016-6.6                                           11000
  140 L  AFINGERVILL~2 A1016-6.6                          .255 .068        11000
  141 L  AROCK HILL ~3 A1001.905                                           11000
  142 L  AROCK HILL ~4 A 998.605                          161.343.02       11000
  143 L  AYORK 2 0     A10199.88                                           11000
  144 L1  YORK 2 1     A104022.4602.5111.4-49.4221.7                       11000
  145 L1  YORK 2 2     A104012.6298.2126.8-49.4221.7                       11000
  146 L   CHAPIN 0     A1029-4.4                                           11000
  147 L  ACHAPIN 1     A1017-5.1                                           11000
  148 L  ACHAPIN 2     A1016-5.2                          57.4215.31       11000
  149 L  AMODOC 0      A1022-10.                                           11000
  150 L  AMODOC 1      A1022-10.                          1.503.401        11000
  151 L   SPARTANBU~11 A1028-4.6                                           11000
  152 L  ASPARTANBU~12 A1027-7.                                            11000
  153 L  ASPARTANBU~13 A1026-7.1                          93.1524.84       11000
  154 L  ABOILING SP~1 A1010-7.5                                           11000
  155 L  ABOILING SP~2 A1009-7.6                          66.8417.82       11000
  156 L  AGREENVILL~13 A 989-11.                                           11000
  157 L  AGREENVILL~14 A 988-11.                          105.528.12       11000
  158 L  APELION 0     A1011-10.                                           11000
  159 L  APELION 1     A1010-10.                          22.856.094       11000
  160 L  AGRANITEVIL~1 A1020-12.                                           11000
  161 L  AGRANITEVIL~2 A1019-12.                          25.956.921       11000
  162 L   IRMO 0       A1029-4.4                                           11000
  163 L  AIRMO 1       A1025-5.1                                           11000
  164 L  AIRMO 2       A1024-5.4                          98.1526.17       11000
  165 L   SALEM 2 0    A1030.075                                           11000
  166 L  ASALEM 2 1    A1025-1.5                                           11000
  167 L1  SALEM 2 2    A10402.3 193.545.89-9.4874.3                        11000
  168 L1  SALEM 2 3    A10403.74193.532.76-9.4874.3                        11000
  169 L1  SALEM 2 4    A10405.37387. 51.61-19. 148.6                       11000
  170 L  AWEST UNION 0 A1012-4.2                                           11000
  171 L  AWEST UNION 1 A1012-4.2                          12.383.3         11000
  172 L  ACROSS HILL 0 A1005-9.3                                           11000
  173 L  ACROSS HILL 1 A1005-9.3                          3.135.836        11000
  174 L  ACROSS HILL 2 A1005-9.3                          7.3051.948       11000
  175 L   FORT LAWN 0  A1034-.09                                           11000
  176 L  AFORT LAWN 1  A1023.719                                           11000
  177 L  AFORT LAWN 2  A1023.702                          8.7812.342       11000
  178 L  AFORT LAWN 3  A1023.708                          6.8131.817       11000
  179 L  ANORTH 0      A1004-11.                                           11000
  180 L  ANORTH 1      A1004-11.                          14.143.77        11000
  181 L  AANDERSON 3 0 A1011-14.                                           11000
  182 L  AANDERSON 3 1 A1010-15.                          82.6122.03       11000
  183 L  ABLACKSBURG~6 A1025-3.2                                           11000
  184 L  ABLACKSBURG~7 A1025-3.3                          30.188.047       11000
  185 L  ALIBERTY 0    A1010-5.8                                           11000
  186 L  ALIBERTY 1    A1009-5.9                          45.3512.09       11000
  187 L  AELLOREE 0    A1017-8.                                            11000
  188 L  AELLOREE 1    A1017-8.1                          11.052.946       11000
  189 L  AWAGENER 0    A1028-14.                                           11000
  190 L  AWAGENER 1    A1028-14.                          14.073.752       11000
  191 L  ATRENTON 0    A1020-12.                                           11000
  192 L  ATRENTON 1    A1019-12.                          16.444.384       11000
  193 L  ABATESBURG 0  A1015-11.                                           11000
  194 L  ABATESBURG 1  A1015-11.                          28.697.652       11000
  195 L   COLUMBIA 8 0 A1029-4.4                                           11000
  196 L  ACOLUMBIA 8 1 A1020-6.6                                           11000
  197 L1  COLUMBIA 8 2 A1040.472293.643.32-35.8136.8                       11000
  198 L1  COLUMBIA 8 3 A1040-2. 207.352.58-25.396.6                        11000
  199 L  ACOLUMBIA 8 4 A1018-6.8                          86.3923.04       11000
  200 L  ALITTLE MOU~1 A1021-5.9                                           11000
...
99999
DLIN
(De )d O d(Pa )NcEP ( R% )( X% )(Mvar)(Tap)(Tmn)(Tmx)(Phs)(Bc  )(Cn)(Ce)Ns(Cq)(1)(2)(3)(4)(5)(6)(7)(8)(9)(10
    2         1 1   .0531 .31397                                  76          
    3       479 1   .725856.96992.25                             320          
    4         3 1   .06921.35184                                 225          
    6         5 1   .05559.3563                                    4          
    7       232 1   .111911.480831.205                          1493          
    7       262 1   .094671.374923.994                          1493          
    8       287 1   .372683.57861.1552                           320          
    8       457 1   .197391.8955.61188                           320          
    8         7 1   .035511.29        1.                         567          
    9         7 1   .012  1.362       1.                         680          
    9         7 2   .012  1.362       1.                         680          
   10       349 1   .140171.3459.43449                           320          
   11        10 1   .0655 .32008                                   3          
   12       216 1   .396233.80481.2282                           320          
   12       304 1   .231012.1191.75098                           320          
   12       441 1   .156471.5025.48502                           320          
   13        12 1   .06231.31341                                  65          
   15        91 1   .479934.60851.4877                           320          
   15       230 1   1.089410.4613.3769                           320          
   15       369 1   .185441.7011.60281                           320          
   15       473 1   .922488.46222.9988                           320          
   15        14 1   .020791.122       1.                         682          
   16        14 1   .032591.202       1.                         596          
   17        14 1   .027871.438       1.                         674          
   17        14 2   .035391.438       1.                         674          
   18        14 1   .141725.115       1.                         340          
   19       112 1   .472224.53451.4638                           320          
   19       272 1   .229312.202 .71083                           320          
   20        19 1   .05412.38858                                   7          
   21       112 1   .5092 4.88971.5784                           320          
   21       196 1   .220722.0247.71751                           320          
   22        21 1   .05872.3174                                  254          
   23       386 1   .1642 2.385141.623                          1493          
   23       464 1   .094721.253226.41                           1493          
   23       471 1   .05321.7040514.837                          1493          
   24       360 1   .236542.2714.73323                           320          
   24        23 1   .033  1.764       1.                         626          
   25        24 1   .06131.36289                                   3          
   26        24 1   .0563 .37294                                  29          
   27        68 1   .560745.38451.7382                           320          
   27       382 1   .336983.09121.0954                           320          
   28        27 1   .06867.3963                                  108          
   29       491 1   .5607 5.38371.7379                           320          
   30        29 1   .06164.32985                                 156          
   31        85 1   .530345.09261.644                            320          
   31       189 1   .570685.48  1.769                            320          
   31       205 1   .779687.48692.4169                           320          
   31       218 1   .827347.94462.5646                           320          
   32        31 1   .06252.34292                                  15          
   34        33 1   .06244.32836                                  43          
   35       399 1   .5636 5.41231.7472                           320          
   36        35 1   .0583 .30301                                  62          
   37       176 1   .303872.918 .94195                           320          
   38        37 1   .05458.38229                                   0          
   39       332 1   .04034.5786210.355                          1493          
   39       428 1   .05214.6898514.538                          1493          
   40       131 1   .290862.6681.94553                           320          
   40        39 1   .07   2.531       1.                         428          
   41        40 1   .06312.39226                                  97          
   42       191 1   .636855.842 2.0703                           320          
   43        42 1   .05416.31189                                   7          
   44         1 1   .547865.02571.781                            320          
   44       200 1   .210521.9311.68435                           320          
   45        44 1   .06365.38764                                   2          
   46       156 1   .6611 6.34822.0493                           320          
   47        46 1   .06022.34541                                  63          
   49        48 1   1.331 27.853      1.                          57          
   50        48 1   .715  16.356      1.                          70          
   51        48 1   .06578.36722                                   0          
   52        48 1   .062  .33423                                  37          
   53       276 1   .150211.4424.46562                           320          
   54        53 1   .06805.30613                                  51          
   55        66 1   .432964.15751.3421                           320          
   55       500 1   .448064.11021.4566                           320          
   56        55 1   .0641 .331                                     3          
   57       123 1   .1682 2.442742.627                          1493          
   58       253 1   .453214.352 1.4049                           320          
   58        57 1   .012  1.762       1.                         675          
   58        57 2   .012  1.762       1.                         675          
   59        58 1   .06204.38484                                 252          
   60       131 1   .198491.8208.64525                           320          
   61        60 1   .05288.35179                                   0          
   62         3 1   .271782.6098.84247                           320          
   62       457 1   .726756.97862.2528                           320          
   63        62 1   .32   16.353      1.                          70          
   64        62 1   .06612.32739                                  45          
   65       297 1   .091961.319223.607                          1493          
   66       308 1   .718046.895 2.2258                           320          
   66        65 1   .080793.088       1.                         405          
   67        66 1   .06614.33586                                   6          
   68       295 1   .4469 4.09951.4528                           320          
   68       314 1   .180511.7334.55955                           320          
   69        68 1   .06688.39982                                  27          
   70       490 1   .2127 1.9512.69144                           320          
   71        70 1   .103  4.472       1.                         133          
   72        70 1   .292  14.481      1.                          60          
   73        70 1   1.269627.303      1.                          49          
   74       189 1   .563235.40841.7459                           320          
   75        74 1   .05844.33391                                   8          
   76        37 1   .147411.4155.45696                           320          
   77        76 1   .0695 .33127                                  12          
   78       328 1   .5432 4.98291.7658                           320          
   78       387 1   .235452.2609.72984                           320          
   79        78 1   .06223.32785                                   0          
   80        65 1   .096021.377324.648                          1493          
   81        42 1   .236122.166 .76759                           320          
   81        80 1   .065  3.481       1.                         529          
   82        80 1   .043  3.113       1.                         628          
   83        33 1   .528655.07641.6387                           320          
   83       342 1   .411563.952 1.2758                           320          
   84        83 1   .06376.36552                                 105          
   86        85 1   .06523.39011                                  30          
   87       141 1   .184611.7727.57225                           320          
   87       143 1   .382023.50431.2419                           320          
   88        87 1   .06225.35686                                   7          
   89       187 1   .211632.0322.656                             320          
   89       457 1   .9012 8.26662.9295                           320          
   90        89 1   .05541.3864                                   10          
   91       133 1   .504054.84021.5624                           320          
   92        91 1   .05717.36172                                 104          
   94        93 1   .0536 .32815                                   8          
   95       170 1   .211072.0268.65427                           320          
   95       369 1   .409443.93161.2692                           320          
   96        95 1   .05627.32534                                  56          
   98        97 1   .05688.3986                                   66          
   99       465 1   .268892.582 .83351                           320          
  100        99 1   .06444.36203                                  22          
  101        99 1   .06995.32939                                   1          
  102       308 1   .564995.42541.7514                           320          
  103       102 1   .0614 .3874                                   64          
  104        31 1   .552585.30621.7129                           320          
  104       191 1   .517654.74851.6828                           320          
  105       104 1   .06725.3751                                  144          
  106       191 1   .446794.29041.385                            320          
  107       106 1   .05746.32063                                  24          
  108       472 1   .203291.9521.63017                           320          
  108       495 1   .361073.46721.1193                           320          
  109       108 1   .0658 .30096                                  62          
  110       316 1   .343923.30251.0661                           320          
  111       110 1   .05268.37083                                  87          
  112        33 1   .706146.78082.1889                           320          
  112       236 1   .632926.07771.9619                           320          
  112       283 1   .861858.276 2.6716                           320          
  112       499 1   .557655.11551.8128                           320          
  113       112 1   .06444.31194                                  72          
  114       191 1   .555725.33641.7226                           320          
  114       312 1   .660896.34622.0486                           320          
  115       114 1   .05062.33604                                   6          
  116       114 1   .0505 .34105                                   5          
  117       426 1   .317222.90991.0312                           320          
  118       117 1   .06338.3851                                   12          
  119       129 1   .234972.1554.76382                           320          
  120       119 1   .05561.3059                                   46          
  121       276 1   .254762.4463.7897                            320          
  121       287 1   .708756.80582.197                            320          
  122       121 1   .05549.38464                                  70          
  124       260 1   .203951.8709.66301                           320          
  124       369 1   .769287.05682.5008                           320          
  124       123 1   .02   1.438       1.                         488          
  125       123 1   .028  4.064       1.                         346          
  126       123 1   .015  2.189       1.                         352          
  127       123 1   .038  4.792       1.                         378          
  128       123 1   .016  1.585       1.                         391          
  130       129 1   .0698 .3221                                  165          
  131       333 1   .222712.1386.69035                           320          
  132       131 1   .06733.36152                                  41          
  133       226 1   .644015.90772.0936                           320          
  133       369 1   .615515.64622.0009                           320          
  134       133 1   .0515 .30826                                  66          
  135       287 1   .756786.94212.4601                           320          
  135       457 1   .686496.29732.2316                           320          
  136       135 1   .05488.36604                                  45          
  137       214 1   .312012.9961.96718                           320          
  137       426 1   .299842.8792.92944                           320          
  137       426 2   .3    2.879 .929                             320          
  138       137 1   .05556.3788                                  122          
  139       376 1   .2676 2.5697.82952                           320          
  140       139 1   .06002.31821                                   0          
  142       141 1   .06867.34167                                 209          
  143       338 1   .211581.9409.68781                           320          
  143       401 1   .4057 3.89571.2576                           320          
  143       452 1   .753657.237 2.3362                           320          
  144       143 1   .152  7.66        1.                         336          
  144       143 2   .152  7.66        1.                         336          
  145       143 1   .119  3.37        1.                         322          
  145       143 2   .119  3.37        1.                         322          
  146       162 1   .02846.408317.3069                          1493          
  146       195 1   .03275.4333 9.1312                          1493          
  147       146 1   .1007 5.565       1.                         272          
  148       147 1   .05927.39351                                 102          
  149        81 1   .287912.6411.93592                           320          
  150       149 1   .068  .36931                                   2          
  151        23 1   .01817.260664.6646                          1493          
  152       151 1   .034192.03        1.                         570          
  153       152 1   .05295.31124                                 130          
  154       429 1   .211952.0352.65699                           320          
  154       488 1   .8007 7.345 2.6029                           320          
  155       154 1   .05326.30051                                  89          
  157       156 1   .05974.35789                                 164          
  158       233 1   .609665.59251.9818                           320          
...
99999
DCSC
(De ) O  (Pa )NcEP       (Xmin)(Xmax)( Xv )C ( Vsp) (Ext)Nst(1)(2)(3)(4)(5)(6)
99999
DCAI
(Num) O  Gr E (U) UOp ( P ) ( Q ) (A) (B) (C) (D) (Vfl) (Vf)
  474     1 L   1   1 7.002 1.867                 80.   1000
  474     2 L   1   1 77.06 20.55                 80.   1000
  474     3 L   1   1 83.17 22.18                 80.   1000
  477     1 L   1   1 10.6  2.827                 80.   1000
  477     2 L   1   1 20.73 5.527                 80.   1000
  478     1 L   1   1 1.776 .474                  80.   1000
  478     2 L   1   1 7.38  1.968                 80.   1000
  489     1 L   1   1 .369  .098                  80.   1000
  489     2 L   1   1 3.312 .883                  80.   1000
  500     1 L   1   1 3.732 .995                  80.   1000
  500     2 L   1   1 19.7  5.253                 80.   1000
99999
DGEI
(Num) OA Gr E(U)UOpUOn( Pg)( Qg)( Qn)( Qm)(Xtrf) ( Xd)( Xq)( Xl) (fp)( Sn)(Ptu)
99999
DBSH
(NFr) O (NTo) Nc C (Vmn (Vmx Bctrl (Qini) T A (Extr
   27            F 0990 1000    27 50.    C        
(G  O E (U) UOp (Sht )
10        1   1 80.   
FBAN
(NFr) O (NTo) Nc C (Vmn (Vmx Bctrl (Qini) T A (Extr
   31            F 0990 1000    31 100.   C        
(G  O E (U) UOp (Sht )
10        1   1 100.  
FBAN
(NFr) O (NTo) Nc C (Vmn (Vmx Bctrl (Qini) T A (Extr
  110            F 0990 1000   110 50.    C        
(G  O E (U) UOp (Sht )
10        1   1 50.   
FBAN
(NFr) O (NTo) Nc C (Vmn (Vmx Bctrl (Qini) T A (Extr
  141            F 0990 1000   141 50.    C        
(G  O E (U) UOp (Sht )
10        1   1 50.   
FBAN
(NFr) O (NTo) Nc C (Vmn (Vmx Bctrl (Qini) T A (Extr
  152            F 0990 1000   152 70.    C        
(G  O E (U) UOp (Sht )
10        1   1 30.   
FBAN
(NFr) O (NTo) Nc C (Vmn (Vmx Bctrl (Qini) T A (Extr
  181            F 0990 1000   181 60.    C        
(G  O E (U) UOp (Sht )
10        1   1 100.  
FBAN
(NFr) O (NTo) Nc C (Vmn (Vmx Bctrl (Qini) T A (Extr
  208            F 0990 1000   208 80.    C        
(G  O E (U) UOp (Sht )
10        1   1 80.   
FBAN
(NFr) O (NTo) Nc C (Vmn (Vmx Bctrl (Qini) T A (Extr
  242            F 0990 1000   242 70.    C        
(G  O E (U) UOp (Sht )
10        1   1 30.   
FBAN
(NFr) O (NTo) Nc C (Vmn (Vmx Bctrl (Qini) T A (Extr
  263            F 0990 1000   263 120.   C        
(G  O E (U) UOp (Sht )
10        1   1 100.  
FBAN
(NFr) O (NTo) Nc C (Vmn (Vmx Bctrl (Qini) T A (Extr
  300            F 0990 1000   300 40.    C        
(G  O E (U) UOp (Sht )
10        1   1 40.   
FBAN
(NFr) O (NTo) Nc C (Vmn (Vmx Bctrl (Qini) T A (Extr
  310            F 0990 1000   310 50.    C        
(G  O E (U) UOp (Sht )
10        1   1 50.   
FBAN
(NFr) O (NTo) Nc C (Vmn (Vmx Bctrl (Qini) T A (Extr
  417            F 0990 1000   417 110.   C        
(G  O E (U) UOp (Sht )
10        1   1 50.   
FBAN
(NFr) O (NTo) Nc C (Vmn (Vmx Bctrl (Qini) T A (Extr
  426            F 0990 1000   426 50.    C        
(G  O E (U) UOp (Sht )
10        1   1 50.   
FBAN
(NFr) O (NTo) Nc C (Vmn (Vmx Bctrl (Qini) T A (Extr
  445            F 0990 1000   445 40.    C        
(G  O E (U) UOp (Sht )
10        1   1 40.   
FBAN
(NFr) O (NTo) Nc C (Vmn (Vmx Bctrl (Qini) T A (Extr
  491            F 0990 1000   491 50.    C        
(G  O E (U) UOp (Sht )
10        1   1 50.   
FBAN
99999
DSHL
(De ) O  (Pa )Nc (Shde)(Shpa) ED EP
99999
DGER
    9          771.8        1.   
   16          444.45       1.   
   17          888.9        1.   
   18          157.6        1.   
   49          1.3          1.   
   50          2.6          1.   
   71          4.           1.   
   72          2.           1.   
   73          1.4          1.   
   82          361.9        1.   
  127          162.         1.   
  128          162.         1.   
  144          602.55       1.   
  145          602.55       1.   
  167          193.5        1.   
  168          193.5        1.   
  169          387.         1.   
  197          293.6        1.   
  198          207.3        1.   
  222          5.2          1.   
  223          18.          1.   
  224          511.2        1.   
  225          514.8        1.   
  231          2.9          1.   
  258          1.1          1.   
  301          2.9          1.   
  302          2.9          1.   
  305          1.           1.   
  306          2.4          1.   
  319          42.3         1.   
  350          15.          1.   
  351          6.2          1.   
  352          14.4         1.   
  353          74.          1.   
  410          136.95       1.   
  411          136.95       1.   
  412          136.95       1.   
  413          136.95       1.   
  430          1.           1.   
  431          3.3          1.   
  432          1.2          1.   
  433          6.7          1.   
  434          4.3          1.   
  437          197.         1.   
  438          197.         1.   
  439          197.         1.   
  455          222.83       1.   
  456          445.67       1.   
  480          56.          1.   
  481          45.          1.   
  482          45.          1.   
  483          24.          1.   
  484          28.          1.   
  497          60.          1.   
  498          18.          1.   
99999
DCAR
(tp) (no ) C (tp) (no ) C (tp) (no ) C (tp) (no ) O (A) (B) (C) (D) (Vfl)
99999
DCER
(No ) O Gr Un (Kb ) (Incl) ( Qg)( Qn)( Qm) C E
99999
DCTR
(Nf ) O (Nt ) Nc Vmin Vmax C M (Fmin) (Fmax) C ( Vsp) (Ext) Ns
99999
DGLT
(G (Vmn) (Vmx) (Vmne (Vmxe
 A .9    1.1   .9    1.1  
99999
DARE
(Ar    (Xchg)     (      Identificacao da area       ) (Xmin) (Xmax)
  1               SouthCarol
99999
DTPF CIRC
(De ) (Pa ) Nc (De ) (Pa ) Nc (De ) (Pa ) Nc (De ) (Pa ) Nc (De ) (Pa ) Nc O
99999
DMTE
(tp) (no ) C (tp) (no ) C (tp) (no ) C (tp) (no ) O F
99999
DMFL CIRC
(De ) (Pa ) Nc (De ) (Pa ) Nc (De ) (Pa ) Nc (De ) (Pa ) Nc (De ) (Pa ) Nc O
99999
DGBT
(G ( kV)
 A 138. 
99999
DINJ
99999
FIM 
